
*MATERIAL, NAME=Component_material
*CONDUCTIVITY
1000.0
*SPECIFIC HEAT
1000000.0
*DENSITY
1.0E-9
*SOLID SECTION,MATERIAL=Component_material,ELSET=Component

